Flow Title=1d_hydrograph
Program Version=6.0
Use Restart= 0 
Boundary Location=River           ,Reach           ,5000    ,        ,                ,                ,                ,                                
Interval=3HOUR
Flow Hydrograph= 241 
  12.794  14.227   15.66  17.094  25.345  33.596  41.847  56.747  71.647  86.547
 104.332 122.116 139.901 156.293 172.686 189.078 201.466 213.854 226.243 233.476
  240.71 247.943 250.103 252.264 254.424 252.605 250.787 248.969 244.004  239.04
 234.076 227.112 220.148 213.184 205.251 197.317 189.384 181.152 172.919 164.687
 156.815 148.943 141.071 133.762 126.454 119.145 112.735 106.326  99.916  94.217
  88.518  82.818  78.137  73.456  68.774  64.814  60.854  56.894  53.719  50.545
  47.371  44.793  42.215  39.637  37.573  35.508  33.444  31.786  30.127  28.469
   27.23  25.991  24.753  23.759  22.764   21.77  21.017  20.263  19.509  18.971
  18.433  17.895  17.439  16.983  16.528  16.212  15.896   15.58  15.346  15.112
  14.878  14.664   14.45  14.236  14.109  13.982  13.855  13.762  13.668  13.575
  13.507  13.438   13.37  13.318  13.266  13.214  13.175  13.136  13.098   13.07
  13.041  13.013  12.993  12.972  12.952  12.937  12.922  12.907  12.897  12.886
  12.875  12.867   12.86  12.852  12.846  12.841  12.835  12.831  12.827  12.823
   12.82  12.818  12.815  12.813  12.811  12.809  12.807  12.806  12.804  12.803
  12.802  12.801    12.8    12.8  12.799  12.798  12.798  12.797  12.797  12.797
  12.796  12.796  12.796  12.795  12.795  12.795  12.795  12.795  12.795  12.795
  12.794  12.794  12.794  12.794  12.794  12.794  12.794  12.794  12.794  12.794
  12.794  12.794  12.794  12.794  12.794  12.794  12.794  12.794  12.794  12.794
  12.794  12.794  12.794  12.794  12.794  12.794  12.794  12.794  12.794  12.794
  12.794  12.794  12.794  12.794  12.794  12.794  12.794  12.794  12.794  12.794
  12.794  12.794  12.794  12.794  12.794  12.794  12.794  12.794  12.794  12.794
  12.794  12.794  12.794  12.794  12.794  12.794  12.794  12.794  12.794  12.794
  12.794  12.794  12.794  12.794  12.794  12.794  12.794  12.794  12.794  12.794
  12.794  12.794  12.794  12.794  12.794  12.794  12.794  12.794  12.794  12.794
  12.794
DSS Path=
Use DSS=False
Use Fixed Start Time=False
Fixed Start Date/Time=,
Is Critical Boundary=False
Critical Boundary Flow=
Boundary Location=River           ,Reach           ,0       ,        ,                ,                ,                ,                                
Friction Slope=0.0001,0
